ECE295_M2_HIERARCHICAL_SCHEMATICS
*SPICE Netlist generated by Advanced Sim server on 3/10/2025 11:31:07 AM
.options MixedSimGenerated

.PLOT {V(5V)} =PLOT(1) =AXIS(1)

*Selected Circuit Analyses:
.AC DEC 10 1K 1G
.TRAN 0.1u 5u 0 0.1u
.OP

.END