Version 4
SHEET 1 880 680
WIRE 128 96 96 96
WIRE 256 96 224 96
WIRE 384 96 352 96
WIRE 128 160 96 160
WIRE 256 160 224 160
WIRE 384 160 352 160
WIRE 128 224 96 224
WIRE 256 224 224 224
WIRE 384 224 352 224
WIRE 128 288 96 288
WIRE 256 288 224 288
WIRE 384 288 352 288
WIRE 128 352 96 352
WIRE 256 352 224 352
WIRE 384 352 352 352
FLAG 96 96 IN
FLAG 96 160 LO
FLAG 96 224 OUT
FLAG 96 288 VCC
FLAG 96 352 GND
SYMBOL voltage 128 96 R0
SYMATTR InstName V1
SYMATTR Value 0
SYMBOL voltage 256 96 R0
SYMATTR InstName V2
SYMATTR Value 0
SYMBOL voltage 384 96 R0
SYMATTR InstName V3
SYMATTR Value 0
SYMBOL voltage 128 224 R0
SYMATTR InstName V4
SYMATTR Value 5
SYMBOL voltage 256 224 R0
SYMATTR InstName V5
SYMATTR Value 5
SYMBOL voltage 384 224 R0
SYMATTR InstName V6
SYMATTR Value 5
SYMBOL behavioral 256 352 R0
SYMATTR InstName B1
SYMATTR Value V=V(IN)*V(LO)
TEXT 160 400 Left 2 ; Behavioral model for LT5560 Mixer
TEXT 160 440 Left 2 ; IN - RF Input, LO - Local Oscillator, OUT - Mixed Output
TEXT 160 480 Left 2 ; Uses multiplication to approximate mixing behavior
